/*--------------------------------*- C++ -*----------------------------------*\
| =========                 |                                                 |
| \\      /  F ield         | OpenFOAM: The Open Source CFD Toolbox           |
|  \\    /   O peration     | Version:  1.6                                   |
|   \\  /    A nd           | Web:      www.OpenFOAM.org                      |
|    \\/     M anipulation  |                                                 |
\*---------------------------------------------------------------------------*/
FoamFile
{
    version     2.0;
    format      ascii;
    class       dictionary;
    location    "system";
    object      fvSolution;
}
// * * * * * * * * * * * * * * * * * * * * * * * * * * * * * * * * * * * * * //

solvers
{
    "(p|rho)"
    {
        solver          PCG;
        preconditioner  DIC;
        tolerance       1e-6;
        relTol          0.01;
    }

    "(p|rho)Final"
    {
        $p;
        relTol          0;
    }


    U
    {
        solver          PBiCGStab;
        preconditioner  DILU;
        tolerance       1e-05;
        relTol          0;
    }

    UFinal
    {
        $U
    }

    h
    {
        solver          PBiCGStab;
        preconditioner  DILU;
        tolerance       1e-05;
        relTol          0;
    }

    hFinal
    {
        solver          PBiCGStab;
        preconditioner  DILU;
        tolerance       1e-05;
        relTol          0;
    }

    k
    {
        solver          PBiCG;
        preconditioner  DILU;
        tolerance       1e-05;
        relTol          0;
    }

    epsilon
    {
        solver          PBiCGStab;
        preconditioner  DILU;
        tolerance       1e-05;
        relTol          0;
    }

    R
    {
        solver          PBiCGStab;
        preconditioner  DILU;
        tolerance       1e-05;
        relTol          0;
    }

    nuTilda
    {
        solver          PBiCGStab;
        preconditioner  DILU;
        tolerance       1e-05;
        relTol          0;
    }

    "(Temp|C)"
    {
        solver          PBiCGStab;
        preconditioner  DILU;
        tolerance       1e-06;
        relTol          0;
    }

    "(Temp|C)Final"
    {
        solver          PBiCGStab;
        preconditioner  DILU;
        tolerance       1e-06;
        relTol          0;
    }

}

PISO
{
    nCorrectors     4;
    nNonOrthogonalCorrectors 0;
    pRefCell        0;
    pRefValue       0;
}

PIMPLE
{
    nCorrectors     4;
    nNonOrthogonalCorrectors 0;
    pRefCell        0;
    pRefValue       0;
}
relaxationFactors
{
    fields
    {
	    p	1.0;
    }
    equations
    {
        "U.*"           1.0;
        "k.*"           1.;
        "epsilon.*"    1.;
    }
}


// ************************************************************************* //
